circuit for testing bjt device
.model mybjt pnp is=1e-15

vcc 1 0  6V
vin 3 0  sin(0.705 50mV 1kHz 0 0)
rc 1 2 5kOhm
q1 2 3 0 mybjt

.print tran v(2) v(3)

.tran 1u 10m
