*circuit for testing npn transistor model
*q1 1 0 2 qmod
*rc 1 3 1k
*rb 0 3 200k
*vcc 3 2 5
*
*.model qmod npn
*
**.ic V(2)=2.8 V(1)=0.79
*
*.op
*.end
*
*
*circuit for testing npn transistor model
*v0 1 0 0
q1 1 2 0 qmod
rc 2 3 200k
rb 1 3 1k
vcc 3 0 5

.model qmod npn is=1e-16 bf=100

*.ic V(2)=2.8 V(1)=0.79

.op
.end
