Parallel RLC circuit
*
IS 0 1 PWL 0 0 1N 1M 1 1M
L 1 0 1M
C 1 0 1N
R 1 0 10K
* 
.TRAN .1U 100U
.PRINT TRAN V(1) I(IS)
.END
