SIMPLE DIODE CIRCUIT

IS 0 1 0.1A
R1 1 0 100
R2 1 2 10K
D1 2 0 DMOD

.MODEL DMOD D(IS=1E-15)

*.OP