SIMPLE CIRCUIT WITH NPN BJT TRANSISTOR

Q1 1 2 0 QMOD
RC 2 3 200K
RB 1 3 1K
VCC 3 0 5

.MODEL QMOD NPN IS=1E-16 BF=100

*.OP